matpower-plain/case33mg.m
function mpc = case33mg
%CASE33MG  Power flow data for 33 bus distribution system from Kashem, et al
%   Please see CASEFORMAT for details on the case file format.
%
%   Data from ...
%       M. A. Kashem, V. Ganapathy, G. B. Jasmon & M. Buhari, "A
%       novel method for loss minimization in distribution networks," in
%       International Conference on Electric Utility Deregulation and
%       Restructuring and Power Technologies (DRPT 2000), 2000.
%
%   Plain-data copy of benchmark-grids/matpower/case33mg.m: the file's
%   MATLAB statements (below, as they were) are evaluated by
%   scripts/evaluate_matpower_code.py and the matrices hold the result.
%     Vbase = mpc.bus(1, BASE_KV) * 1e3;
%     Sbase = mpc.baseMVA * 1e6;
%     mpc.branch(:, [BR_R BR_X]) = mpc.branch(:, [BR_R BR_X]) / (Vbase^2 / Sbase);
%     mpc.bus(:, [PD, QD]) = mpc.bus(:, [PD, QD]) / 1e3;

%% MATPOWER Case Format : Version 2
mpc.version = '2';

mpc.baseMVA = 1;

mpc.bus = [
	1	3	0	0	0	0	1	1	0	12.66	1	1.1	0.9;
	2	1	0.1	0.06	0	0	1	1	0	12.66	1	1.1	0.9;
	3	1	0.09	0.04	0	0	1	1	0	12.66	1	1.1	0.9;
	4	1	0.12	0.08	0	0	1	1	0	12.66	1	1.1	0.9;
	5	1	0.06	0.03	0	0	1	1	0	12.66	1	1.1	0.9;
	6	1	0.06	0.02	0	0	1	1	0	12.66	1	1.1	0.9;
	7	1	0.2	0.1	0	0	1	1	0	12.66	1	1.1	0.9;
	8	1	0.2	0.1	0	0	1	1	0	12.66	1	1.1	0.9;
	9	1	0.06	0.02	0	0	1	1	0	12.66	1	1.1	0.9;
	10	1	0.06	0.02	0	0	1	1	0	12.66	1	1.1	0.9;
	11	1	0.045	0.03	0	0	1	1	0	12.66	1	1.1	0.9;
	12	1	0.06	0.035	0	0	1	1	0	12.66	1	1.1	0.9;
	13	1	0.06	0.035	0	0	1	1	0	12.66	1	1.1	0.9;
	14	1	0.12	0.08	0	0	1	1	0	12.66	1	1.1	0.9;
	15	1	0.06	0.01	0	0	1	1	0	12.66	1	1.1	0.9;
	16	1	0.06	0.02	0	0	1	1	0	12.66	1	1.1	0.9;
	17	1	0.06	0.02	0	0	1	1	0	12.66	1	1.1	0.9;
	18	1	0.09	0.04	0	0	1	1	0	12.66	1	1.1	0.9;
	19	1	0.09	0.04	0	0	1	1	0	12.66	1	1.1	0.9;
	20	1	0.09	0.04	0	0	1	1	0	12.66	1	1.1	0.9;
	21	1	0.09	0.04	0	0	1	1	0	12.66	1	1.1	0.9;
	22	1	0.09	0.04	0	0	1	1	0	12.66	1	1.1	0.9;
	23	1	0.09	0.05	0	0	1	1	0	12.66	1	1.1	0.9;
	24	1	0.42	0.2	0	0	1	1	0	12.66	1	1.1	0.9;
	25	1	0.42	0.2	0	0	1	1	0	12.66	1	1.1	0.9;
	26	1	0.06	0.025	0	0	1	1	0	12.66	1	1.1	0.9;
	27	1	0.06	0.025	0	0	1	1	0	12.66	1	1.1	0.9;
	28	1	0.06	0.02	0	0	1	1	0	12.66	1	1.1	0.9;
	29	1	0.12	0.07	0	0	1	1	0	12.66	1	1.1	0.9;
	30	1	0.2	0.6	0	0	1	1	0	12.66	1	1.1	0.9;
	31	1	0.15	0.07	0	0	1	1	0	12.66	1	1.1	0.9;
	32	1	0.21	0.1	0	0	1	1	0	12.66	1	1.1	0.9;
	33	1	0.06	0.04	0	0	1	1	0	12.66	1	1.1	0.9;
];

mpc.gen = [
	1	0	0	10	-10	1	100	1	10	0	0	0	0	0	0	0	0	0	0	0	0;
];

mpc.branch = [
	1	2	0.000575259116172393	0.00029324488568440864	0	0	0	0	0	0	1	-360	360;
	2	3	0.0030759516732428395	0.0015666763999011703	0	0	0	0	0	0	1	-360	360;
	3	4	0.002283566556606246	0.001162996738118591	0	0	0	0	0	0	1	-360	360;
	4	5	0.002377779275198471	0.0012110389853477385	0	0	0	0	0	0	1	-360	360;
	5	6	0.005109948114372992	0.0044111517910399335	0	0	0	0	0	0	1	-360	360;
	6	7	0.0011679881404281127	0.00386084968641515	0	0	0	0	0	0	1	-360	360;
	7	8	0.010677857390644615	0.007706101240613045	0	0	0	0	0	0	1	-360	360;
	8	9	0.0064264304735093805	0.00461704713630771	0	0	0	0	0	0	1	-360	360;
	9	10	0.0065137800139260125	0.00461704713630771	0	0	0	0	0	0	1	-360	360;
	10	11	0.0012266371175649942	0.0004055514376486502	0	0	0	0	0	0	1	-360	360;
	11	12	0.0023359762808562255	0.000772419507398506	0	0	0	0	0	0	1	-360	360;
	12	13	0.009159223237972592	0.007206337084372169	0	0	0	0	0	0	1	-360	360;
	13	14	0.0033791793635462915	0.004447963383072657	0	0	0	0	0	0	1	-360	360;
	14	15	0.0036873984561592655	0.003281847018510616	0	0	0	0	0	0	1	-360	360;
	15	16	0.004656354429495194	0.0034003928233617598	0	0	0	0	0	0	1	-360	360;
	16	17	0.008042396971217078	0.010737754218358878	0	0	0	0	0	0	1	-360	360;
	17	18	0.004567133113212492	0.003581331157081926	0	0	0	0	0	0	1	-360	360;
	2	19	0.001023237473451979	0.0009764430768002117	0	0	0	0	0	0	1	-360	360;
	19	20	0.009385084192478455	0.008456683362907391	0	0	0	0	0	0	1	-360	360;
	20	21	0.002554974057186496	0.0029848585810940656	0	0	0	0	0	0	1	-360	360;
	21	22	0.004423006371525048	0.005848051730893537	0	0	0	0	0	0	1	-360	360;
	3	23	0.0028151509025703225	0.0019235616650319827	0	0	0	0	0	0	1	-360	360;
	23	24	0.005602849092438275	0.004424254222102428	0	0	0	0	0	0	1	-360	360;
	24	25	0.00559037058666447	0.00437434019900721	0	0	0	0	0	0	1	-360	360;
	6	26	0.0012665683360411693	0.000645138748505699	0	0	0	0	0	0	1	-360	360;
	26	27	0.0017731956704576369	0.0009028198927347644	0	0	0	0	0	0	1	-360	360;
	27	28	0.006607368807229547	0.0058255904205006875	0	0	0	0	0	0	1	-360	360;
	28	29	0.0050176071716468386	0.004371220572563759	0	0	0	0	0	0	1	-360	360;
	29	30	0.0031664208401029226	0.0016128468712642474	0	0	0	0	0	0	1	-360	360;
	30	31	0.006079528012997612	0.006008400530086925	0	0	0	0	0	0	1	-360	360;
	31	32	0.0019372880213831675	0.0022579856197699464	0	0	0	0	0	0	1	-360	360;
	32	33	0.002127585234433688	0.0033080518806356055	0	0	0	0	0	0	1	-360	360;
	21	8	0.012478505773804622	0.012478505773804622	0	0	0	0	0	0	0	-360	360;
	9	15	0.012478505773804622	0.012478505773804622	0	0	0	0	0	0	0	-360	360;
	12	22	0.012478505773804622	0.012478505773804622	0	0	0	0	0	0	0	-360	360;
	18	33	0.0031196264434511555	0.0031196264434511555	0	0	0	0	0	0	0	-360	360;
	25	29	0.0031196264434511555	0.0031196264434511555	0	0	0	0	0	0	0	-360	360;
];

mpc.gencost = [
	2	0	0	3	0	20	0;
];
